/*--------------------------------*- C++ -*----------------------------------*\
  =========                 |
  \\      /  F ield         | OpenFOAM: The Open Source CFD Toolbox
   \\    /   O peration     | Website:  https://openfoam.org
    \\  /    A nd           | Version:  7
     \\/     M anipulation  |
\*---------------------------------------------------------------------------*/
FoamFile
{
    version     2.0;
    format      ascii;
    class       polyBoundaryMesh;
    location    "constant/polyMesh";
    object      boundary;
}
// * * * * * * * * * * * * * * * * * * * * * * * * * * * * * * * * * * * * * //

10
(
    inlet
    {
        type            patch;
        nFaces          62;
        startFace       19066;
    }
    outlet
    {
        type            patch;
        nFaces          70;
        startFace       19128;
    }
    top
    {
        type            patch;
        nFaces          138;
        startFace       19198;
    }
    bottom
    {
        type            patch;
        nFaces          138;
        startFace       19336;
    }
    flapTop
    {
        type            wall;
        inGroups        List<word> 1(wall);
        nFaces          60;
        startFace       19474;
    }
    flapBottom
    {
        type            wall;
        inGroups        List<word> 1(wall);
        nFaces          60;
        startFace       19534;
    }
    flapSide
    {
        type            wall;
        inGroups        List<word> 1(wall);
        nFaces          2;
        startFace       19594;
    }
    cylinder
    {
        type            wall;
        inGroups        List<word> 1(wall);
        nFaces          42;
        startFace       19596;
    }
    front
    {
        type            empty;
        inGroups        List<word> 1(empty);
        nFaces          9676;
        startFace       19638;
    }
    back
    {
        type            empty;
        inGroups        List<word> 1(empty);
        nFaces          9676;
        startFace       29314;
    }
)

// ************************************************************************* //
