/*--------------------------------*- C++ -*----------------------------------*\
  =========                 |
  \\      /  F ield         | OpenFOAM: The Open Source CFD Toolbox
   \\    /   O peration     | Website:  https://openfoam.org
    \\  /    A nd           | Version:  7
     \\/     M anipulation  |
\*---------------------------------------------------------------------------*/
FoamFile
{
    version     2.0;
    format      binary;
    class       polyBoundaryMesh;
    location    "constant/polyMesh";
    object      boundary;
}
// * * * * * * * * * * * * * * * * * * * * * * * * * * * * * * * * * * * * * //

12
(
    inlet
    {
        type            patch;
        nFaces          0;
        startFace       20724;
    }
    outlet
    {
        type            patch;
        nFaces          81;
        startFace       20724;
    }
    top
    {
        type            patch;
        nFaces          130;
        startFace       20805;
    }
    bottom
    {
        type            patch;
        nFaces          0;
        startFace       20935;
    }
    front
    {
        type            empty;
        inGroups        List<word> 1(empty);
        nFaces          10468;
        startFace       20935;
    }
    back
    {
        type            empty;
        inGroups        List<word> 1(empty);
        nFaces          10468;
        startFace       31403;
    }
    flapBottom
    {
        type            patch;
        nFaces          0;
        startFace       41871;
    }
    flapSide
    {
        type            patch;
        nFaces          0;
        startFace       41871;
    }
    flapTop
    {
        type            patch;
        nFaces          0;
        startFace       41871;
    }
    cylinder
    {
        type            wall;
        inGroups        List<word> 1(wall);
        nFaces          0;
        startFace       41871;
    }
    procBoundary3to1
    {
        type            processor;
        inGroups        List<word> 1(processor);
        nFaces          132;
        startFace       41871;
        matchTolerance  0.0001;
        transform       unknown;
        myProcNo        3;
        neighbProcNo    1;
    }
    procBoundary3to2
    {
        type            processor;
        inGroups        List<word> 1(processor);
        nFaces          81;
        startFace       42003;
        matchTolerance  0.0001;
        transform       unknown;
        myProcNo        3;
        neighbProcNo    2;
    }
)

// ************************************************************************* //
