// * * * * * * * * * * * * * * * * * * * * * * * * * * * * * * * * * * * * * //
FoamFile
{
    version     2.0;
    format      ascii;
    class       dictionary;
    location    system;
    object      controlDict;
}
// * * * * * * * * * * * * * * * * * * * * * * * * * * * * * * * * * * * * * //

libs ( "librampAngularOscillatingDisplacementPointPatchVectorField.so" "libOpenFOAM.so" )


application         pimpleFoam;


startFrom           startTime;

startTime           0;

stopAt              endTime;

endTime             100;

deltaT              2.5e-5;

writeControl        adjustableRunTime;

writeInterval       0.01;

purgeWrite          0;

writeFormat         binary;

runTimeModifiable   true;

writePrecision      12;

writeCompression    off;

timeFormat          general;

timePrecision       8;


functions
{
    preCICE_Adapter
    {
        type preciceAdapterFunctionObject;
        libs ("libpreciceAdapterFunctionObject.so");
    }
}
