//Diccionario decomposePar

FoamFile
{
    version 2.0;
    format ascii;
    class dictionary;
    location system;
    object decomposeParDict;
}
// * * * * * * * * * * * * * * * * * * * * * * * * * * * * * * * * * * * * * //

    numberOfSubdomains 4;
    
  // method scotch;
    
    method hierarchical;
    hierarchicalCoeffs
    {
        n (2 2 1);
        delta 0.001;
        order xyz;
    }
    
    distributed false;
    roots
    (
    );

