/*--------------------------------*- C++ -*----------------------------------*\
  =========                 |
  \\      /  F ield         | OpenFOAM: The Open Source CFD Toolbox
   \\    /   O peration     | Website:  https://openfoam.org
    \\  /    A nd           | Version:  7
     \\/     M anipulation  |
\*---------------------------------------------------------------------------*/
FoamFile
{
    version     2.0;
    format      binary;
    class       polyBoundaryMesh;
    location    "constant/polyMesh";
    object      boundary;
}
// * * * * * * * * * * * * * * * * * * * * * * * * * * * * * * * * * * * * * //

10
(
    inlet
    {
        type            patch;
        nFaces          124;
        startFace       76358;
    }
    outlet
    {
        type            patch;
        nFaces          138;
        startFace       76482;
    }
    top
    {
        type            patch;
        nFaces          276;
        startFace       76620;
    }
    bottom
    {
        type            patch;
        nFaces          276;
        startFace       76896;
    }
    flapTop
    {
        type            wall;
        inGroups        List<word> 1(wall);
        nFaces          120;
        startFace       77172;
    }
    flapBottom
    {
        type            wall;
        inGroups        List<word> 1(wall);
        nFaces          120;
        startFace       77292;
    }
    flapSide
    {
        type            wall;
        inGroups        List<word> 1(wall);
        nFaces          2;
        startFace       77412;
    }
    cylinder
    {
        type            wall;
        inGroups        List<word> 1(wall);
        nFaces          84;
        startFace       77414;
    }
    front
    {
        type            empty;
        inGroups        List<word> 1(empty);
        nFaces          38464;
        startFace       77498;
    }
    back
    {
        type            empty;
        inGroups        List<word> 1(empty);
        nFaces          38464;
        startFace       115962;
    }
)

// ************************************************************************* //
