FoamFile
{
    version     2.0;
    format      ascii;
    class       volScalarField;
    object      p;
}
// * * * * * * * * * * * * * * * * * * * * * * * * * * * * * * * * * * * * * //

dimensions      [0 2 -2 0 0 0 0];

internalField   uniform 0;

boundaryField
{
    cylinder
    {
        type            zeroGradient;
    }

    flapTop
    {
        type            zeroGradient;
    }
    flapBottom
    {
        type            zeroGradient;
    }
    flapSide
    {
        type            zeroGradient;
    }

    top
    {
        type            slip;
    }

    bottom
    {
        type            slip;
    }

    inlet
    {
        type            zeroGradient;
    }

    outlet
    {
        type            fixedValue;
        value           uniform 0;
    }
    back
    {
        type            empty;
    }
    front
    {
        type            empty;
    }
}

// ************************************************************************* //
