//blockMeshDict para caso FSI2

FoamFile
{
	version	2.0;
	format		ascii;
	class		dictionary;
	object		blockMeshDict;
}

//Definimos los nodos de la malla


x5 -0.002121320344;
y5 -0.002121320344;
x6 -0.002121320344;
y6 0.002121320344;
x8 -0.001060660172;
y8 -0.001060660172;
x9 -0.001060660172;
y9 0.001060660172;
x10 0.001060660172;
y10 -0.001060660172;
x11 0.001060660172;
y11 0.001060660172;
x12 0.001499791652;
y12 -0.000025;
x13 0.001499791652;
y13 0.000025;
x15 0.002121320344;
y15 -0.002121320344;
x18 0.002121320344;
y18 0.002121320344;
x22 0.03649979165;
x16 0.002508782179;

xentrada -0.025;
altura2 0.045;
maltura2 -0.045;
xsalida 0.2;

vertices
(
	($xentrada $maltura2 0) 						//Vertice 0
	($xentrada $y5 0) 							//Vertice 1
	($xentrada $y6 0) 							//Vertice 2
	($xentrada $altura2 0) 						//Vertice 3
	($x5 $maltura2 0) 							//Vertice 4
	($x5 $y5 0)								//Vertice 5
	($x6 $y6 0)								//Vertice 6
	($x6 $altura2 0)							//Vertice 7
	($x8 $y8 0)								//Vertice 8
	($x9 $y9 0)								//Vertice 9
	($x10 $y10 0) 								//Vertice 10
	($x11 $y11 0) 								//Vertice 11
	($x12 $y12 0) 								//Vertice 12
	($x13 $y13 0) 								//Vertice 13
	($x15 $maltura2 0) 							//Vertice 14
	($x15 $y15 0)								//Vertice 15
	($x16 $y12 0) 								//Vertice 16
	($x16 $y13 0) 								//Vertice 17
	($x18 $y18 0) 								//Vertice 18
	($x18 $altura2 0) 							//Vertice 19
	($x22 $maltura2 0) 							//Vertice 20
	($x22 $y15 0) 								//Vertice 21
	($x22 $y12 0) 								//Vertice 22
	($x22 $y13 0) 								//Vertice 23
	($x22 $y18 0) 								//Vertice 24
	($x22 $altura2 0) 							//Vertice 25
	($xsalida $maltura2 0) 						//Vertice 26
	($xsalida $y15 0) 							//Vertice 27
	($xsalida $y12 0) 							//Vertice 28
	($xsalida $y13 0) 							//Vertice 29
	($xsalida $y18 0) 							//Vertice 30
	($xsalida $altura2 0) 							//Vertice 31
	($xentrada $maltura2 0.01) 			 			//Vertice 32			
	($xentrada $y5 0.01) 							//Vertice 33 							
	($xentrada $y6 0.01) 							//Vertice 34							
	($xentrada $altura2 0.01) 						//Vertice 35 					
	($x5 $maltura2 0.01) 							//Vertice 36 						
	($x5 $y5 0.01) 							//Vertice 37								
	($x6 $y6 0.01) 							//Vertice 38								
	($x6 $altura2 0.01) 							//Vertice 39							
	($x8 $y8 0.01) 							//Vertice 40								
	($x9 $y9 0.01) 							//Vertice 41								
	($x10 $y10 0.01) 							//Vertice 42
	($x11 $y11 0.01) 							//Vertice 43
	($x12 $y12 0.01) 							//Vertice 44
	($x13 $y13 0.01) 							//Vertice 45
	($x15 $maltura2 0.01) 						//Vertice 46
	($x15 $y15 0.01)							//Vertice 47
	($x16 $y12 0.01) 							//Vertice 48
	($x16 $y13 0.01) 							//Vertice 49
	($x18 $y18 0.01) 							//Vertice 50
	($x18 $altura2 0.01) 							//Vertice 51
	($x22 $maltura2 0.01) 						//Vertice 52
	($x22 $y15 0.01) 							//Vertice 53
	($x22 $y12 0.01) 							//Vertice 54
	($x22 $y13 0.01) 							//Vertice 55
	($x22 $y18 0.01) 							//Vertice 56
	($x22 $altura2 0.01) 							//Vertice 57
	($xsalida $maltura2 0.01) 						//Vertice 58
	($xsalida $y15 0.01) 							//Vertice 59
	($xsalida $y12 0.01) 							//Vertice 60
	($xsalida $y13 0.01) 							//Vertice 61
	($xsalida $y18 0.01) 							//Vertice 62
	($xsalida $altura2 0.01) 						//Vertice 63
);

a 0.002508834263;
ma -0.002508834263;
r 0.0015;
mr -0.0015;
bx 0.001299038106;
by 0.00075;
mby -0.00075;
cx 0.002458337467;
cy 0.0007767957411;
mcy -0.0007767957411;

edges
(
	arc 5 6 ($ma 0 0)
	arc 37 38 ($ma 0 0.01)
	arc 8 9 ($mr 0 0)
	arc 40 41 ($mr 0 0.01)
	arc 5 15 (0 $ma 0)
	arc 37 47 (0 $ma 0.01)
	arc 8 10 (0 $mr 0)
	arc 40 42 (0 $mr 0.01)
	arc 9 11 (0 $r 0)
	arc 41 43 (0 $r 0.01)
	arc 6 18 (0 $a 0)
	arc 38 50 (0 $a 0.01)
	arc 10 12 ($bx $mby 0)
	arc 42 44 ($bx $mby 0.01)
	arc 15 16 ($cx $mcy 0)
	arc 47 48 ($cx $mcy 0.01)
	arc 11 13 ($bx $by 0)
	arc 43 45 ($bx $by 0.01)
	arc 17 18 ($cx $cy 0)
	arc 49 50 ($cx $cy 0.01)
);

NxUpstream 20;
NxEstela 80;
NxVarilla 3;
NyVarilla 3;
NxAla 35;
NyAla 3;
NyDetrasAla 2;
NyAbajo 10;
NyArriba 10;
Nradial 4;


blocks
(
	hex (0 4 5 1 32 36 37 33) ($NxUpstream $NyAbajo 1) simpleGrading (1 1 1)					//Bloque 0
	hex (1 5 6 2 33 37 38 34) ($NxUpstream $NyVarilla 1) simpleGrading (1 1 1)					//Bloque 1
	hex (2 6 7 3 34 38 39 35) ($NxUpstream $NyArriba 1) simpleGrading (1 1 1)					//Bloque 2
	hex (4 14 15 5 36 46 47 37) ($NxVarilla $NyAbajo 1) simpleGrading (1 1 1)				//Bloque 3
	hex (5 15 10 8 37 47 42 40) ($NxVarilla $Nradial 1) simpleGrading (1 1 1)				//Bloque 4
	hex (5 8 9 6 37 40 41 38) ($Nradial $NyVarilla 1) simpleGrading (1 1 1)					//Bloque 5
	hex (9 11 18 6 41 43 50 38) ($NxVarilla $Nradial 1) simpleGrading (1 1 1)				//Bloque 6
	hex (6 18 19 7 38 50 51 39) ($NxVarilla $NyArriba 1) simpleGrading (1 1 1)				//Bloque 7
	hex (10 15 16 12 42 47 48 44) ($Nradial $NyAla 1) simpleGrading (1 1 1)				//Bloque 8
	hex (13 17 18 11 45 49 50 43) ($Nradial $NyAla 1) simpleGrading (1 1 1)				//Bloque 9
	hex (14 20 21 15 46 52 53 47) ($NxAla $NyAbajo 1) simpleGrading (1 1 1)				//Bloque 10
	hex (15 21 22 16 47 53 54 48) ($NxAla $NyAla 1) simpleGrading (1 1 1)				//Bloque 11
	hex (17 23 24 18 49 55 56 50) ($NxAla $NyAla 1) simpleGrading (1 1 1)				//Bloque 12
	hex (18 24 25 19 50 56 57 51) ($NxAla $NyArriba 1) simpleGrading (1 1 1)				//Bloque 13
	hex (20 26 27 21 52 58 59 53) ($NxEstela $NyAbajo 1) simpleGrading (1 1 1)				//Bloque 14
	hex (21 27 28 22 53 59 60 54) ($NxEstela $NyAla 1) simpleGrading (1 1 1)				//Bloque 15
	hex (22 28 29 23 54 60 61 55) ($NxEstela $NyDetrasAla 1) simpleGrading (1 1 1)				//Bloque 16
	hex (23 29 30 24 55 61 62 56) ($NxEstela $NyAla 1) simpleGrading (1 1 1)				//Bloque 17
	hex (24 30 31 25 56 62 63 57) ($NxEstela $NyArriba 1) simpleGrading (1 1 1)				//Bloque 18
);

boundary
(
	entrada
	{
		type patch;
		faces
		(
		 	(33 1 0 32)
		 	(34 2 1 33)
		 	(35 3 2 34)
		);
	}
	
	salida
	{
		type patch;
		faces
		(
		 	(31 63 62 30)
		 	(30 62 61 29)
		 	(29 61 60 28)
		 	(28 60 59 27)
		 	(27 59 58 26)
		);
	}
	
	top
	{
		type wall;
		faces
		(
		 	(3 35 39 7)
		 	(7 39 51 19)
		 	(19 51 57 25)
		 	(25 57 63 31)
		);
	}
	
	bottom
	{
		type wall;
		faces
		(
		 	(4 36 32 0)
		 	(14 46 36 4)
		 	(20 52 46 14)
		 	(26 58 52 20)
		);
	}
	
	varilla
	{
		type wall;
		faces
		(
			(9 41 40 8)
			(11 43 41 9)
			(8 40 42 10)
			(43 11 13 45)
			(44 12 10 42)
		);
	}
	
	ala
	{
		type wall;
		faces
		(
			(17 49 45 13)
			(23 55 49 17)
			(55 23 22 54)
			(54 22 16 48)
			(12 44 48 16)
		);
	}
	
	front
	{
		type empty;
		faces
		(
			(39 35 34 38)
			(38 34 33 37)
			(37 33 32 36)
			(51 39 38 50)
			(50 38 41 43)
			(41 38 37 40)
			(42 40 37 47)
			(47 37 36 46)
			(50 43 45 49)
			(48 44 42 47)
			(57 51 50 56)
			(56 50 49 55)
			(54 48 47 53)
			(53 47 46 52)
			(63 57 56 62)
			(62 56 55 61)
			(61 55 54 60)
			(60 54 53 59)
			(59 53 52 58)
		);
	}
	
	back
	{
		type empty;
		faces
		(
			(0 1 5 4)
			(1 2 6 5)
			(2 3 7 6)
			(4 5 15 14)
			(5 8 10 15)
			(5 6 9 8)
			(6 18 11 9)
			(6 7 19 18)
			(10 12 16 15)
			(13 11 18 17)
			(14 15 21 20)
			(15 16 22 21)
			(17 18 24 23)
			(18 19 25 24)
			(20 21 27 26)
			(21 22 28 27)
			(22 23 29 28)
			(23 24 30 29)
			(24 25 31 30)
		);
	}
);

mergePatchPairs
(
);
