/*--------------------------------*- C++ -*----------------------------------*\
  =========                 |
  \\      /  F ield         | OpenFOAM: The Open Source CFD Toolbox
   \\    /   O peration     | Website:  https://openfoam.org
    \\  /    A nd           | Version:  7
     \\/     M anipulation  |
\*---------------------------------------------------------------------------*/
FoamFile
{
    version     2.0;
    format      binary;
    class       polyBoundaryMesh;
    location    "constant/polyMesh";
    object      boundary;
}
// * * * * * * * * * * * * * * * * * * * * * * * * * * * * * * * * * * * * * //

10
(
    inlet
    {
        type            patch;
        nFaces          150;
        startFace       96107;
    }
    outlet
    {
        type            patch;
        nFaces          161;
        startFace       96257;
    }
    top
    {
        type            patch;
        nFaces          302;
        startFace       96418;
    }
    bottom
    {
        type            patch;
        nFaces          302;
        startFace       96720;
    }
    flapTop
    {
        type            wall;
        inGroups        List<word> 1(wall);
        nFaces          110;
        startFace       97022;
    }
    flapBottom
    {
        type            wall;
        inGroups        List<word> 1(wall);
        nFaces          110;
        startFace       97132;
    }
    flapSide
    {
        type            wall;
        inGroups        List<word> 1(wall);
        nFaces          1;
        startFace       97242;
    }
    cylinder
    {
        type            wall;
        inGroups        List<word> 1(wall);
        nFaces          50;
        startFace       97243;
    }
    front
    {
        type            empty;
        inGroups        List<word> 1(empty);
        nFaces          48350;
        startFace       97293;
    }
    back
    {
        type            empty;
        inGroups        List<word> 1(empty);
        nFaces          48350;
        startFace       145643;
    }
)

// ************************************************************************* //
