/*--------------------------------*- C++ -*----------------------------------*\
  =========                 |
  \\      /  F ield         | OpenFOAM: The Open Source CFD Toolbox
   \\    /   O peration     | Website:  https://openfoam.org
    \\  /    A nd           | Version:  7
     \\/     M anipulation  |
\*---------------------------------------------------------------------------*/
FoamFile
{
    version     2.0;
    format      binary;
    class       polyBoundaryMesh;
    location    "constant/polyMesh";
    object      boundary;
}
// * * * * * * * * * * * * * * * * * * * * * * * * * * * * * * * * * * * * * //

12
(
    inlet
    {
        type            patch;
        nFaces          80;
        startFace       20398;
    }
    outlet
    {
        type            patch;
        nFaces          0;
        startFace       20478;
    }
    top
    {
        type            patch;
        nFaces          0;
        startFace       20478;
    }
    bottom
    {
        type            patch;
        nFaces          119;
        startFace       20478;
    }
    front
    {
        type            empty;
        inGroups        List<word> 1(empty);
        nFaces          10298;
        startFace       20597;
    }
    back
    {
        type            empty;
        inGroups        List<word> 1(empty);
        nFaces          10298;
        startFace       30895;
    }
    flapBottom
    {
        type            patch;
        nFaces          0;
        startFace       41193;
    }
    flapSide
    {
        type            patch;
        nFaces          0;
        startFace       41193;
    }
    flapTop
    {
        type            patch;
        nFaces          0;
        startFace       41193;
    }
    cylinder
    {
        type            wall;
        inGroups        List<word> 1(wall);
        nFaces          35;
        startFace       41193;
    }
    procBoundary0to1
    {
        type            processor;
        inGroups        List<word> 1(processor);
        nFaces          80;
        startFace       41228;
        matchTolerance  0.0001;
        transform       unknown;
        myProcNo        0;
        neighbProcNo    1;
    }
    procBoundary0to2
    {
        type            processor;
        inGroups        List<word> 1(processor);
        nFaces          255;
        startFace       41308;
        matchTolerance  0.0001;
        transform       unknown;
        myProcNo        0;
        neighbProcNo    2;
    }
)

// ************************************************************************* //
